src/trunk/dynamics/Two_Areas_PSS_E/small_system_with_control.raw
0,   100.00,  32, 0, 1, 60.00     / PSS(R)E 32 RAW small system TUE, SEP 17 2025  14:35
3-BUS TEST SYSTEM
Created from custom python grid description

     1,'Bus0        ',   20.0000,1,   1,   1,   1,1.00000,   0.0000
     3,'Bus2        ',   20.0000,1,   1,   1,   1,1.00000,   0.0000
 0 /End of Bus data, Begin Load data
     3,'1 ',1,   1,   1,     7.500,     1.000,     0.000,     0.000,     0.000,     0.000,   1,1
 0 /End of Load data, Begin Fixed shunt data
 0 /End of Fixed shunt data, Begin Generator data
     1,'1 ',     4.000,     0.000,   999.000,  -999.000,1.00000,     0,   900.000, 0.00000E+0, 3.00000E-1, 0.00000E+0, 0.00000E+0,1.00000,1,  100.0,     0.000,     0.000,   1,1.0000
 0 /End of Generator data, Begin Branch data
     1,      3,'1 ', 5.00000E-3, 5.00000E-2,   2.18700E-2,  900.00,  900.00,    0.00,  0.00000,  0.00000,  0.00000,  0.00000,1,1,  25.00,   1,1.0000
 0 /End of Branch data, Begin Area interchange data
 0 /End of Area interchange data, Begin Two-terminal dc line data
 0 /End of Two-terminal dc line data, Begin VSC dc line data
 0 /End of VSC dc line data, Begin Impedance correction table data
 0 /End of Impedance correction table data, Begin Multi-terminal dc line data
 0 /End of Multi-terminal dc line data, Begin Multi-section line data
 0 /End of Multi-section line data, Begin Zone data
 0 /End of Zone data, Begin Inter-area transfer data
 0 /End of Inter-area transfer data, Begin Owner data
 0 /End of Owner data, Begin FACTS device data
 0 /End of FACTS device data, Begin Switched shunt data
 0 /End of Switched shunt data, Begin GNE device data
 0 /End of GNE device data

